<?xml version="1.0" encoding="UTF-8"?>
<additional xmlns:xsi="http://www.w3.org/2001/XMLSchema-instance" xsi:noNamespaceSchemaLocation="http://sumo.dlr.de/xsd/additional_file.xsd">
    <!-- generated on 2025-03-02 02:15:17 by Eclipse SUMO netedit Version 1.21.0 -->
    
    <!-- Shapes -->
    <poi id="poi_0" color="red" layer="202.00" x="-16.00" y="16.00"/>
    <poi id="poi_1" color="red" layer="202.00" x="19.00" y="88.40"/>
    <poi id="poi_2" color="red" layer="202.00" x="19.00" y="76.09"/>
    <poi id="Info" color="red" layer="202.00" x="-80.64" y="82.34"/>
</additional>
