<?xml version="1.0" encoding="UTF-8"?>
<sumoConfiguration xmlns:xsi="http://www.w3.org/2001/XMLSchema-instance" xsi:noNamespaceSchemaLocation="http://sumo.dlr.de/xsd/sumoConfiguration.xsd">
    <input>
        <net-file value="sumo.net.xml"/>
        <route-files value="sumo.rou.xml"/>
        <additional-files value="sumo.add.xml"/>
    </input>
    <gui_only>
        <gui-settings-file value="sumo.view.xml"/>
    </gui_only>
</sumoConfiguration>
