<?xml version="1.0" encoding="UTF-8"?>

<!-- generated on 2025-03-02 02:15:18 by Eclipse SUMO netedit Version 1.21.0
-->

<routes xmlns:xsi="http://www.w3.org/2001/XMLSchema-instance" xsi:noNamespaceSchemaLocation="http://sumo.dlr.de/xsd/routes_file.xsd">
    <!-- Routes -->
    <route id="r_0" edges="E10 -E6 -E5 -E8 -E7 E9"/>
    <route id="r_1" edges="-E9 E7 E8 E5 E6 -E10"/>
</routes>
