<?xml version="1.0" encoding="UTF-8"?>

<!-- generated on 2025-03-02 02:15:15 by Eclipse SUMO netedit Version 1.21.0
<neteditConfiguration xmlns:xsi="http://www.w3.org/2001/XMLSchema-instance" xsi:noNamespaceSchemaLocation="http://sumo.dlr.de/xsd/neteditConfiguration.xsd">

    <input>
        <sumocfg-file value="C:\Users\Abrah\Documents\Research - Current\Digital Twin\BC Work\Practical\The Simulation\SUMO_Network\sumo.sumocfg"/>
        <additional-files value="C:\Users\Abrah\Documents\Research - Current\Digital Twin\BC Work\Practical\The Simulation\SUMO_Network\sumo.add.xml"/>
        <route-files value="C:\Users\Abrah\Documents\Research - Current\Digital Twin\BC Work\Practical\The Simulation\SUMO_Network\sumo.rou.xml"/>
        <sumo-net-file value="C:\Users\Abrah\Documents\Research - Current\Digital Twin\BC Work\Practical\The Simulation\SUMO_Network\sumo.net.xml"/>
    </input>

    <output>
        <output-file value="C:\Users\Abrah\Documents\Research - Current\Digital Twin\BC Work\Practical\The Simulation\SUMO_Network\sumo.net.xml"/>
    </output>

    <processing>
        <geometry.min-radius.fix.railways value="false"/>
        <geometry.max-grade.fix value="false"/>
        <offset.disable-normalization value="true"/>
        <lefthand value="0"/>
    </processing>

    <junctions>
        <no-internal-links value="false"/>
        <no-turnarounds value="true"/>
        <junctions.corner-detail value="5"/>
        <junctions.limit-turn-speed value="5.50"/>
        <rectangular-lane-cut value="0"/>
    </junctions>

    <pedestrian>
        <walkingareas value="0"/>
    </pedestrian>

</neteditConfiguration>
-->

<net version="1.20" junctionCornerDetail="5" limitTurnSpeed="5.50" xmlns:xsi="http://www.w3.org/2001/XMLSchema-instance" xsi:noNamespaceSchemaLocation="http://sumo.dlr.de/xsd/net_file.xsd">

    <location netOffset="0.00,0.00" convBoundary="-100.00,-100.00,100.00,100.00" origBoundary="-10000000000.00,-10000000000.00,10000000000.00,10000000000.00" projParameter="!"/>

    <edge id=":J5_0" function="internal">
        <lane id=":J5_0_0" index="0" disallow="pedestrian" speed="6.08" length="7.74" shape="-96.80,101.60 -98.90,101.30 -100.40,100.40 -101.30,98.90 -101.60,96.80"/>
    </edge>
    <edge id=":J5_1" function="internal">
        <lane id=":J5_1_0" index="0" disallow="pedestrian" speed="3.90" length="2.58" shape="-98.40,96.80 -98.30,97.50 -98.00,98.00 -97.50,98.30 -96.80,98.40"/>
    </edge>
    <edge id=":J6_0" function="internal">
        <lane id=":J6_0_0" index="0" disallow="pedestrian" speed="8.00" length="14.19" shape="1.60,92.80 1.05,96.65 -0.60,99.40 -3.35,101.05 -7.20,101.60"/>
    </edge>
    <edge id=":J6_1" function="internal">
        <lane id=":J6_1_0" index="0" disallow="pedestrian" speed="6.51" length="9.03" shape="-7.20,98.40 -4.75,98.05 -3.00,97.00 -1.95,95.25 -1.60,92.80"/>
    </edge>
    <edge id=":J7_0" function="internal">
        <lane id=":J7_0_0" index="0" disallow="pedestrian" speed="7.48" length="12.26" shape="-1.60,9.20 -2.08,5.87 -3.50,3.50 -5.88,2.07 -9.20,1.60"/>
    </edge>
    <edge id=":J7_1" function="internal">
        <lane id=":J7_1_0" index="0" disallow="pedestrian" speed="13.89" length="18.40" shape="-1.60,9.20 -1.60,-9.20"/>
    </edge>
    <edge id=":J7_2" function="internal">
        <lane id=":J7_2_0" index="0" disallow="pedestrian" speed="8.81" length="17.42" shape="-1.60,9.20 -0.92,4.48 1.10,1.10 4.48,-0.92 9.20,-1.60"/>
    </edge>
    <edge id=":J7_3" function="internal">
        <lane id=":J7_3_0" index="0" disallow="pedestrian" speed="7.48" length="8.11" shape="9.20,1.60 5.87,2.08 3.50,3.50 2.48,5.20"/>
    </edge>
    <edge id=":J7_4" function="internal">
        <lane id=":J7_4_0" index="0" disallow="pedestrian" speed="13.89" length="18.40" shape="9.20,1.60 -9.20,1.60"/>
    </edge>
    <edge id=":J7_5" function="internal">
        <lane id=":J7_5_0" index="0" disallow="pedestrian" speed="8.81" length="4.77" shape="9.20,1.60 4.48,0.92"/>
    </edge>
    <edge id=":J7_15" function="internal">
        <lane id=":J7_15_0" index="0" disallow="pedestrian" speed="7.48" length="4.15" shape="2.48,5.20 2.07,5.88 1.60,9.20"/>
    </edge>
    <edge id=":J7_16" function="internal">
        <lane id=":J7_16_0" index="0" disallow="pedestrian" speed="8.81" length="12.64" shape="4.48,0.92 1.10,-1.10 -0.92,-4.48 -1.60,-9.20"/>
    </edge>
    <edge id=":J7_6" function="internal">
        <lane id=":J7_6_0" index="0" allow="bicycle" speed="6.22" length="8.87" width="1.00" shape="3.70,-9.20 4.04,-6.79 5.08,-5.07 6.79,-4.04 9.20,-3.70"/>
    </edge>
    <edge id=":J7_7" function="internal">
        <lane id=":J7_7_0" index="0" allow="bicycle" speed="13.89" length="18.43" width="1.00" shape="3.70,-9.20 2.70,9.20"/>
    </edge>
    <edge id=":J7_8" function="internal">
        <lane id=":J7_8_0" index="0" disallow="pedestrian" speed="7.48" length="12.26" shape="1.60,-9.20 2.08,-5.87 3.50,-3.50 5.88,-2.07 9.20,-1.60"/>
    </edge>
    <edge id=":J7_9" function="internal">
        <lane id=":J7_9_0" index="0" disallow="pedestrian" speed="13.89" length="18.40" shape="1.60,-9.20 1.60,9.20"/>
    </edge>
    <edge id=":J7_10" function="internal">
        <lane id=":J7_10_0" index="0" disallow="pedestrian" speed="8.81" length="17.42" shape="1.60,-9.20 0.92,-4.48 -1.10,-1.10 -4.48,0.92 -9.20,1.60"/>
    </edge>
    <edge id=":J7_11" function="internal">
        <lane id=":J7_11_0" index="0" disallow="pedestrian" speed="7.48" length="8.11" shape="-9.20,-1.60 -5.87,-2.08 -3.50,-3.50 -2.48,-5.20"/>
    </edge>
    <edge id=":J7_12" function="internal">
        <lane id=":J7_12_0" index="0" allow="bicycle" speed="13.89" length="18.41" width="1.00" shape="-9.20,-2.70 9.20,-3.70"/>
        <lane id=":J7_12_1" index="1" disallow="pedestrian" speed="13.89" length="18.41" shape="-9.20,-1.60 9.20,-1.60"/>
    </edge>
    <edge id=":J7_14" function="internal">
        <lane id=":J7_14_0" index="0" disallow="pedestrian" speed="8.81" length="4.77" shape="-9.20,-1.60 -4.48,-0.92"/>
    </edge>
    <edge id=":J7_17" function="internal">
        <lane id=":J7_17_0" index="0" disallow="pedestrian" speed="7.48" length="4.15" shape="-2.48,-5.20 -2.07,-5.88 -1.60,-9.20"/>
    </edge>
    <edge id=":J7_18" function="internal">
        <lane id=":J7_18_0" index="0" disallow="pedestrian" speed="8.81" length="12.64" shape="-4.48,-0.92 -1.10,1.10 0.92,4.48 1.60,9.20"/>
    </edge>
    <edge id=":J7_c0" function="crossing" crossingEdges="-E6 E6">
        <lane id=":J7_c0_0" index="0" allow="pedestrian" speed="2.78" length="6.40" width="4.00" shape="3.20,7.20 -3.20,7.20" outlineShape="3.30,9.20 -3.30,9.20 -3.20,5.20 -3.20,9.20 -3.20,5.20 4.34,5.20 3.87,5.87 3.37,7.37"/>
    </edge>
    <edge id=":J7_c1" function="crossing" crossingEdges="-E10 E10">
        <lane id=":J7_c1_0" index="0" allow="pedestrian" speed="2.78" length="7.40" width="4.00" shape="7.20,-4.20 7.20,3.20" outlineShape="9.20,-4.30 9.20,3.20 7.37,3.37 5.87,3.87 5.20,4.34 5.20,-4.20 9.20,-4.20 5.20,-4.20"/>
    </edge>
    <edge id=":J7_c2" function="crossing" crossingEdges="E9 -E9">
        <lane id=":J7_c2_0" index="0" allow="pedestrian" speed="2.78" length="7.40" width="4.00" shape="-3.20,-7.20 4.20,-7.20" outlineShape="-3.20,-9.20 4.30,-9.20 4.20,-5.20 4.20,-9.20 4.20,-5.20 -4.34,-5.20 -3.87,-5.87 -3.37,-7.37"/>
    </edge>
    <edge id=":J7_c3" function="crossing" crossingEdges="E7 -E7">
        <lane id=":J7_c3_0" index="0" allow="pedestrian" speed="2.78" length="6.40" width="4.00" shape="-7.20,3.20 -7.20,-3.20" outlineShape="-9.20,3.20 -9.20,-3.30 -9.20,-3.20 -7.37,-3.37 -5.87,-3.87 -5.20,-4.34 -5.20,3.20 -9.20,3.20 -5.20,3.20"/>
    </edge>
    <edge id=":J7_w0" function="walkingarea">
        <lane id=":J7_w0_0" index="0" allow="pedestrian" speed="2.78" length="5.10" width="4.00" shape="3.20,9.20 5.20,9.20 9.20,5.20 9.20,3.20 7.37,3.37 5.87,3.87 4.70,4.70 3.87,5.87 3.37,7.37"/>
    </edge>
    <edge id=":J7_w1" function="walkingarea">
        <lane id=":J7_w1_0" index="0" allow="pedestrian" speed="2.78" length="5.10" width="4.00" shape="-3.20,-9.20 -5.20,-9.20 -9.20,-5.20 -9.20,-3.20 -7.37,-3.37 -5.87,-3.87 -4.70,-4.70 -3.87,-5.87 -3.37,-7.37"/>
    </edge>
    <edge id=":J7_w2" function="walkingarea">
        <lane id=":J7_w2_0" index="0" allow="pedestrian" speed="2.78" length="5.66" width="4.00" shape="-3.20,5.20 -3.20,9.20 -9.20,3.20 -5.20,3.20"/>
    </edge>
    <edge id=":J7_w3" function="walkingarea">
        <lane id=":J7_w3_0" index="0" allow="pedestrian" speed="2.78" length="4.24" width="4.00" shape="4.20,-5.20 4.20,-9.20 9.20,-4.20 5.20,-4.20"/>
    </edge>
    <edge id=":J8_0" function="internal">
        <lane id=":J8_0_0" index="0" disallow="pedestrian" speed="8.00" length="14.19" shape="-101.60,7.20 -101.05,3.35 -99.40,0.60 -96.65,-1.05 -92.80,-1.60"/>
    </edge>
    <edge id=":J8_1" function="internal">
        <lane id=":J8_1_0" index="0" disallow="pedestrian" speed="6.51" length="9.03" shape="-92.80,1.60 -95.25,1.95 -97.00,3.00 -98.05,4.75 -98.40,7.20"/>
    </edge>

    <edge id="-E10" from="J7" to="J10" priority="-1">
        <lane id="-E10_0" index="0" allow="bicycle" speed="13.89" length="90.80" width="1.00" shape="9.20,-3.70 100.00,-3.70"/>
        <lane id="-E10_1" index="1" disallow="pedestrian" speed="13.89" length="90.80" shape="9.20,-1.60 100.00,-1.60"/>
    </edge>
    <edge id="-E5" from="J6" to="J5" priority="-1">
        <lane id="-E5_0" index="0" disallow="pedestrian" speed="13.89" length="89.60" shape="-7.20,101.60 -96.80,101.60"/>
    </edge>
    <edge id="-E6" from="J7" to="J6" priority="-1">
        <lane id="-E6_0" index="0" allow="pedestrian" speed="13.89" length="83.60" width="2.00" shape="4.20,9.20 4.20,92.80"/>
        <lane id="-E6_1" index="1" disallow="pedestrian" speed="13.89" length="83.60" shape="1.60,9.20 1.60,92.80"/>
    </edge>
    <edge id="-E7" from="J8" to="J7" priority="-1">
        <lane id="-E7_0" index="0" allow="pedestrian" speed="13.89" length="83.60" width="2.00" shape="-92.80,-4.20 -9.20,-4.20"/>
        <lane id="-E7_1" index="1" disallow="pedestrian" speed="13.89" length="83.60" shape="-92.80,-1.60 -9.20,-1.60"/>
    </edge>
    <edge id="-E8" from="J5" to="J8" priority="-1">
        <lane id="-E8_0" index="0" disallow="pedestrian" speed="13.89" length="89.60" shape="-101.60,96.80 -101.60,7.20"/>
    </edge>
    <edge id="-E9" from="J9" to="J7" priority="-1">
        <lane id="-E9_0" index="0" allow="bicycle" speed="13.89" length="90.80" width="1.00" shape="3.70,-100.00 3.70,-9.20"/>
        <lane id="-E9_1" index="1" disallow="pedestrian" speed="13.89" length="90.80" shape="1.60,-100.00 1.60,-9.20"/>
    </edge>
    <edge id="E10" from="J10" to="J7" priority="-1">
        <lane id="E10_0" index="0" allow="pedestrian" speed="13.89" length="90.80" width="2.00" shape="100.00,4.20 9.20,4.20"/>
        <lane id="E10_1" index="1" disallow="pedestrian" speed="13.89" length="90.80" shape="100.00,1.60 9.20,1.60"/>
    </edge>
    <edge id="E5" from="J5" to="J6" priority="-1">
        <lane id="E5_0" index="0" disallow="pedestrian" speed="13.89" length="89.60" shape="-96.80,98.40 -7.20,98.40"/>
    </edge>
    <edge id="E6" from="J6" to="J7" priority="-1">
        <lane id="E6_0" index="0" disallow="pedestrian" speed="13.89" length="83.60" shape="-1.60,92.80 -1.60,9.20"/>
    </edge>
    <edge id="E7" from="J7" to="J8" priority="-1">
        <lane id="E7_0" index="0" disallow="pedestrian" speed="13.89" length="83.60" shape="-9.20,1.60 -92.80,1.60"/>
    </edge>
    <edge id="E8" from="J8" to="J5" priority="-1">
        <lane id="E8_0" index="0" disallow="pedestrian" speed="13.89" length="89.60" shape="-98.40,7.20 -98.40,96.80"/>
    </edge>
    <edge id="E9" from="J7" to="J9" priority="-1">
        <lane id="E9_0" index="0" allow="pedestrian" speed="13.89" length="90.80" width="2.00" shape="-4.20,-9.20 -4.20,-100.00"/>
        <lane id="E9_1" index="1" disallow="pedestrian" speed="13.89" length="90.80" shape="-1.60,-9.20 -1.60,-100.00"/>
    </edge>

    <junction id="J10" type="dead_end" x="100.00" y="0.00" incLanes="-E10_0 -E10_1" intLanes="" shape="100.00,0.00 100.00,-4.20 100.00,0.00"/>
    <junction id="J5" type="traffic_light" x="-100.00" y="100.00" incLanes="-E5_0 E8_0" intLanes=":J5_0_0 :J5_1_0" shape="-96.80,103.20 -96.80,96.80 -103.20,96.80 -102.49,100.36 -101.60,101.60 -100.36,102.49 -98.76,103.02">
        <request index="0" response="00" foes="00" cont="0"/>
        <request index="1" response="00" foes="00" cont="0"/>
    </junction>
    <junction id="J6" type="traffic_light" x="0.00" y="100.00" incLanes="-E6_0 -E6_1 E5_0" intLanes=":J6_0_0 :J6_1_0" shape="5.20,92.80 -3.20,92.80 -3.64,95.02 -4.20,95.80 -4.98,96.36 -5.98,96.69 -7.20,96.80 -7.20,103.20 -3.41,102.91 -0.31,102.04 2.10,100.60 3.82,98.58 4.86,95.98">
        <request index="0" response="00" foes="00" cont="0"/>
        <request index="1" response="00" foes="00" cont="0"/>
    </junction>
    <junction id="J7" type="priority" x="0.00" y="0.00" incLanes="E6_0 E10_0 E10_1 -E9_0 -E9_1 -E7_0 -E7_1 :J7_w0_0 :J7_w3_0 :J7_w1_0 :J7_w2_0" intLanes=":J7_0_0 :J7_1_0 :J7_2_0 :J7_15_0 :J7_4_0 :J7_16_0 :J7_6_0 :J7_7_0 :J7_8_0 :J7_9_0 :J7_10_0 :J7_17_0 :J7_12_0 :J7_12_1 :J7_18_0 :J7_c0_0 :J7_c1_0 :J7_c2_0 :J7_c3_0" shape="-3.20,9.20 5.20,9.20 5.64,6.98 6.20,6.20 6.98,5.64 7.98,5.31 9.20,5.20 9.20,-4.20 6.42,-4.76 5.45,-5.45 4.76,-6.42 4.34,-7.67 4.20,-9.20 -5.20,-9.20 -5.64,-6.98 -6.20,-6.20 -6.98,-5.64 -7.98,-5.31 -9.20,-5.20 -9.20,3.20 -5.87,3.87 -4.70,4.70 -3.87,5.87 -3.37,7.37">
        <request index="0"  response="1000000000000010000" foes="1001000010000010000" cont="0"/>
        <request index="1"  response="0000111100000110000" foes="0101111110000110000" cont="0"/>
        <request index="2"  response="0010110001110110000" foes="0011110001110110000" cont="0"/>
        <request index="3"  response="0001000000000000000" foes="0011100001010000000" cont="1"/>
        <request index="4"  response="0000000000000000000" foes="1010100011010000111" cont="0"/>
        <request index="5"  response="0100011100000000000" foes="0110011111010000110" cont="1"/>
        <request index="6"  response="0010001000000000000" foes="0110001000000000000" cont="0"/>
        <request index="7"  response="0000111001000111000" foes="0101111001100111100" cont="0"/>
        <request index="8"  response="0010011000010000000" foes="0110011000010000100" cont="0"/>
        <request index="9"  response="0000111000000111000" foes="0101111000010111100" cont="0"/>
        <request index="10" response="1000111000000110011" foes="1100111000000110011" cont="0"/>
        <request index="11" response="0100000000000000000" foes="1100000000000100010" cont="1"/>
        <request index="12" response="0000000000000000000" foes="1010000011111100010" cont="0"/>
        <request index="13" response="0000000000000000000" foes="1010000011110100110" cont="0"/>
        <request index="14" response="0001000000000011000" foes="1001000011010011110" cont="1"/>
        <request index="15" response="0000000001010000111" foes="0000100001010001111" cont="0"/>
        <request index="16" response="0000011000000111000" foes="0000011000101111100" cont="0"/>
        <request index="17" response="0000000011111000010" foes="0000000111111100010" cont="0"/>
        <request index="18" response="0000111100000010000" foes="0000111110000010001" cont="0"/>
    </junction>
    <junction id="J8" type="priority" x="-100.00" y="0.00" incLanes="-E8_0 E7_0" intLanes=":J8_0_0 :J8_1_0" shape="-103.20,7.20 -96.80,7.20 -96.36,4.98 -95.80,4.20 -95.02,3.64 -94.02,3.31 -92.80,3.20 -92.80,-5.20 -95.98,-4.86 -98.58,-3.82 -100.60,-2.10 -102.04,0.31 -102.91,3.41">
        <request index="0" response="00" foes="00" cont="0"/>
        <request index="1" response="00" foes="00" cont="0"/>
    </junction>
    <junction id="J9" type="dead_end" x="0.00" y="-100.00" incLanes="E9_0 E9_1" intLanes="" shape="0.00,-100.00 -5.20,-100.00 0.00,-100.00"/>

    <junction id=":J7_15_0" type="internal" x="2.48" y="5.20" incLanes=":J7_3_0" intLanes=":J7_7_0 :J7_9_0 :J7_14_0 :J7_c0_0 :J7_c1_0"/>
    <junction id=":J7_16_0" type="internal" x="4.48" y="0.92" incLanes=":J7_5_0 -E7_1" intLanes=":J7_1_0 :J7_2_0 :J7_7_0 :J7_9_0 :J7_10_0 :J7_11_0 :J7_12_0 :J7_12_1 :J7_c1_0 :J7_c2_0"/>
    <junction id=":J7_17_0" type="internal" x="-2.48" y="-5.20" incLanes=":J7_11_0" intLanes=":J7_1_0 :J7_5_0 :J7_c2_0 :J7_c3_0"/>
    <junction id=":J7_18_0" type="internal" x="-4.48" y="-0.92" incLanes=":J7_14_0 E10_1" intLanes=":J7_1_0 :J7_2_0 :J7_3_0 :J7_4_0 :J7_7_0 :J7_9_0 :J7_10_0 :J7_c0_0 :J7_c3_0"/>

    <connection from="-E5" to="-E8" fromLane="0" toLane="0" uncontrolled="1" via=":J5_0_0" dir="l" state="M"/>
    <connection from="-E6" to="-E5" fromLane="1" toLane="0" uncontrolled="1" via=":J6_0_0" dir="l" state="M"/>
    <connection from="-E7" to="E9" fromLane="1" toLane="1" via=":J7_11_0" dir="r" state="m"/>
    <connection from="-E7" to="-E10" fromLane="1" toLane="0" via=":J7_12_0" dir="s" state="M"/>
    <connection from="-E7" to="-E10" fromLane="1" toLane="1" via=":J7_12_1" dir="s" state="M"/>
    <connection from="-E7" to="-E6" fromLane="1" toLane="1" via=":J7_14_0" dir="l" state="m"/>
    <connection from="-E8" to="-E7" fromLane="0" toLane="1" via=":J8_0_0" dir="l" state="M"/>
    <connection from="-E9" to="-E10" fromLane="0" toLane="0" via=":J7_6_0" dir="r" state="m"/>
    <connection from="-E9" to="-E6" fromLane="0" toLane="1" via=":J7_7_0" dir="s" state="m"/>
    <connection from="-E9" to="-E10" fromLane="1" toLane="1" via=":J7_8_0" dir="r" state="m"/>
    <connection from="-E9" to="-E6" fromLane="1" toLane="1" via=":J7_9_0" dir="s" state="m"/>
    <connection from="-E9" to="E7" fromLane="1" toLane="0" via=":J7_10_0" dir="l" state="m"/>
    <connection from="E10" to="-E6" fromLane="1" toLane="1" via=":J7_3_0" dir="r" state="m"/>
    <connection from="E10" to="E7" fromLane="1" toLane="0" via=":J7_4_0" dir="s" state="M"/>
    <connection from="E10" to="E9" fromLane="1" toLane="1" via=":J7_5_0" dir="l" state="m"/>
    <connection from="E5" to="E6" fromLane="0" toLane="0" uncontrolled="1" via=":J6_1_0" dir="r" state="M"/>
    <connection from="E6" to="E7" fromLane="0" toLane="0" via=":J7_0_0" dir="r" state="m"/>
    <connection from="E6" to="E9" fromLane="0" toLane="1" via=":J7_1_0" dir="s" state="m"/>
    <connection from="E6" to="-E10" fromLane="0" toLane="1" via=":J7_2_0" dir="l" state="m"/>
    <connection from="E7" to="E8" fromLane="0" toLane="0" via=":J8_1_0" dir="r" state="M"/>
    <connection from="E8" to="E5" fromLane="0" toLane="0" uncontrolled="1" via=":J5_1_0" dir="r" state="M"/>

    <connection from=":J5_0" to="-E8" fromLane="0" toLane="0" dir="l" state="M"/>
    <connection from=":J5_1" to="E5" fromLane="0" toLane="0" dir="r" state="M"/>
    <connection from=":J6_0" to="-E5" fromLane="0" toLane="0" dir="l" state="M"/>
    <connection from=":J6_1" to="E6" fromLane="0" toLane="0" dir="r" state="M"/>
    <connection from=":J7_0" to="E7" fromLane="0" toLane="0" dir="r" state="M"/>
    <connection from=":J7_1" to="E9" fromLane="0" toLane="1" dir="s" state="M"/>
    <connection from=":J7_2" to="-E10" fromLane="0" toLane="1" dir="l" state="M"/>
    <connection from=":J7_3" to="-E6" fromLane="0" toLane="1" via=":J7_15_0" dir="r" state="m"/>
    <connection from=":J7_15" to="-E6" fromLane="0" toLane="1" dir="r" state="m"/>
    <connection from=":J7_4" to="E7" fromLane="0" toLane="0" dir="s" state="M"/>
    <connection from=":J7_5" to="E9" fromLane="0" toLane="1" via=":J7_16_0" dir="l" state="m"/>
    <connection from=":J7_16" to="E9" fromLane="0" toLane="1" dir="l" state="m"/>
    <connection from=":J7_6" to="-E10" fromLane="0" toLane="0" dir="r" state="M"/>
    <connection from=":J7_7" to="-E6" fromLane="0" toLane="1" dir="s" state="M"/>
    <connection from=":J7_8" to="-E10" fromLane="0" toLane="1" dir="r" state="M"/>
    <connection from=":J7_9" to="-E6" fromLane="0" toLane="1" dir="s" state="M"/>
    <connection from=":J7_10" to="E7" fromLane="0" toLane="0" dir="l" state="M"/>
    <connection from=":J7_11" to="E9" fromLane="0" toLane="1" via=":J7_17_0" dir="r" state="m"/>
    <connection from=":J7_17" to="E9" fromLane="0" toLane="1" dir="r" state="m"/>
    <connection from=":J7_12" to="-E10" fromLane="0" toLane="0" dir="s" state="M"/>
    <connection from=":J7_12" to="-E10" fromLane="1" toLane="1" dir="s" state="M"/>
    <connection from=":J7_14" to="-E6" fromLane="0" toLane="1" via=":J7_18_0" dir="l" state="m"/>
    <connection from=":J7_18" to="-E6" fromLane="0" toLane="1" dir="l" state="m"/>
    <connection from=":J8_0" to="-E7" fromLane="0" toLane="1" dir="l" state="M"/>
    <connection from=":J8_1" to="E8" fromLane="0" toLane="0" dir="r" state="M"/>

    <connection from=":J7_c0" to=":J7_w2" fromLane="0" toLane="0" dir="s" state="M"/>
    <connection from=":J7_c1" to=":J7_w0" fromLane="0" toLane="0" dir="s" state="M"/>
    <connection from=":J7_c2" to=":J7_w3" fromLane="0" toLane="0" dir="s" state="M"/>
    <connection from=":J7_c3" to=":J7_w1" fromLane="0" toLane="0" dir="s" state="M"/>
    <connection from=":J7_w0" to=":J7_c0" fromLane="0" toLane="0" dir="s" state="m"/>
    <connection from=":J7_w0" to="-E6" fromLane="0" toLane="0" dir="s" state="M"/>
    <connection from="E10" to=":J7_w0" fromLane="0" toLane="0" dir="s" state="M"/>
    <connection from=":J7_w1" to=":J7_c2" fromLane="0" toLane="0" dir="s" state="m"/>
    <connection from=":J7_w1" to="E9" fromLane="0" toLane="0" dir="s" state="M"/>
    <connection from="-E7" to=":J7_w1" fromLane="0" toLane="0" dir="s" state="M"/>
    <connection from=":J7_w2" to=":J7_c3" fromLane="0" toLane="0" dir="s" state="m"/>
    <connection from=":J7_w3" to=":J7_c1" fromLane="0" toLane="0" dir="s" state="m"/>
</net>
